Test_systems/39-bus system/case39_dyn.m
function dyn = case39_dyn
%% CASE39: Dynamic data for 39 bus, 10 generator case.
%
% This is the data file for the 39-Bus system with 10-machines. 
% The data is partially taken from [1] with some of the 
% parameters modified to account for a more realistic model. 
% This MATPOWER based data has been prepared by Sebastian Martinez from 
% Prof. Pulgar's research team at the University of Tennessee, Knoxville.
%
% Last update: July, 2023.
%
%   References:
%   [1] M. A. Pai, Energy Function Analysis for Power System Stability,
%       Kluwer Academic Publishers, Boston, 1989.

%% Bus Data
%  Bus   exp_P   exp_Q  
dyn.bus = [
   1     2       2;
   2     2       2;
   3     2       2;
   4     2       2;
   5     2       2;
   6     2       2;
   7     2       2;
   8     2       2;
   9     2       2;
  10     2       2;
  11     2       2;
  12     2       2;
  13     2       2;
  14     2       2;
  15     2       2;
  16     2       2;
  17     2       2;
  18     2       2;
  19     2       2;
  20     2       2;
  21     2       2;
  22     2       2;
  23     2       2;
  24     2       2;
  25     2       2;
  26     2       2;
  27     2       2;
  28     2       2;
  29     2       2;
  30     2       2;
  31     2       2;
  32     2       2;
  33     2       2;
  34     2       2;
  35     2       2;
  36     2       2;
  37     2       2;
  38     2       2;
  39     2       2;
]; 

%% Generator Data
% Bus   Type    H(s)    Rs(pu)   Xd(pu)   Xd'(pu)  Xq(pu)  Xq'(pu)   Td0'(s)  Tq0'(s)   D(s)
dyn.gen = [     
  30    2       42.0    0.000    0.1000   0.0310   0.069   0.0080    10.2     0.01      84.0;
  31    2       30.3    0.000    0.2950   0.0697   0.282   0.1700    6.56     1.50      60.6;
  32    2       35.8    0.000    0.2495   0.0531   0.237   0.0876    5.70     1.50      71.6;
  33    2       28.6    0.000    0.2620   0.0436   0.258   0.1660    5.69     1.50      57.2;
  34    2       26.0    0.000    0.6700   0.1320   0.620   0.1660    5.40     0.44      52.0;
  35    2       34.8    0.000    0.2540   0.0500   0.241   0.0814    7.30     0.40      69.6;
  36    2       26.4    0.000    0.2950   0.0490   0.292   0.1860    5.66     1.50      52.8;
  37    2       24.3    0.000    0.2900   0.0570   0.280   0.0911    6.70     0.41      48.6;
  38    2       34.5    0.000    0.2106   0.0570   0.205   0.0587    4.79     1.96      69.0;
  39    0       500.0   0.000    0.0200   0.0060   0.019   0.0080    7.00     0.70    1000.0;
];
  
%% AVR Data 
% Bus   Type    KA     TA(s)   KE       TE(s)   KF      TF(s)   TB(s)   TR(s)   TC(s)   Vmin    Vmax    Vrmin   Vrmax   Kc
dyn.avr = [ 
  30    2       20.00  0.20    1.0000   0.314   0.0630   0.35   0.00    0.00    0.00    0.00    0.00    -10.00  10.00   0.00;
  31    2       20.00  0.20    1.0000   0.314   0.0630   0.35   0.00    0.00    0.00    0.00    0.00    -10.00  10.00   0.00;
  32    2       20.00  0.20    1.0000   0.314   0.0630   0.35   0.00    0.00    0.00    0.00    0.00    -10.00  10.00   0.00;
  33    2       20.00  0.20    1.0000   0.314   0.0630   0.35   0.00    0.00    0.00    0.00    0.00    -10.00  10.00   0.00;
  34    2       20.00  0.20    1.0000   0.314   0.0630   0.35   0.00    0.00    0.00    0.00    0.00    -10.00  10.00   0.00;
  35    2       20.00  0.20    1.0000   0.314   0.0630   0.35   0.00    0.00    0.00    0.00    0.00    -10.00  10.00   0.00;
  36    2       20.00  0.20    1.0000   0.314   0.0630   0.35   0.00    0.00    0.00    0.00    0.00    -10.00  10.00   0.00;
  37    2       20.00  0.20    1.0000   0.314   0.0630   0.35   0.00    0.00    0.00    0.00    0.00    -10.00  10.00   0.00;
  38    2       20.00  0.20    1.0000   0.314   0.0630   0.35   0.00    0.00    0.00    0.00    0.00    -10.00  10.00   0.00;
  39    0       20.00  0.20    1.0000   0.314   0.0630   0.35   0.00    0.00    0.00    0.00    0.00    -10.00  10.00   0.00;
];

%% Turbine/Governor Data
% Bus   Type    T1     T2     T3      T4     K1     Dt      Pmin    Pmax    At      Kt
dyn.gov = [
  30    2       0.30   5.00   12.00   0.10   30.00  0.00    0.00    100.00  0.00    0.00;
  31    2       0.30   5.00   12.00   0.10   30.00  0.00    0.00    100.00  0.00    0.00; 
  32    2       0.30   5.00   12.00   0.10   30.00  0.00    0.00    100.00  0.00    0.00;
  33    2       0.30   5.00   12.00   0.10   30.00  0.00    0.00    100.00  0.00    0.00;
  34    2       0.30   5.00   12.00   0.10   30.00  0.00    0.00    100.00  0.00    0.00;
  35    2       0.30   5.00   12.00   0.10   30.00  0.00    0.00    100.00  0.00    0.00;
  36    2       0.30   5.00   12.00   0.10   30.00  0.00    0.00    100.00  0.00    0.00;
  37    2       0.30   5.00   12.00   0.10   30.00  0.00    0.00    100.00  0.00    0.00;
  38    2       0.30   5.00   12.00   0.10   30.00  0.00    0.00    100.00  0.00    0.00;
  39    3       0.25   0.25   2.500   0.00   20.00  0.25    0.00    100.000 12.00    2.50; % Type 3: GAST
];

%% IBR Data
% Bus    Type    TQ    TD     Rf      Xf    Teq    Ted 
dyn.ibr = [
   5     1       0.01  0.01   0.0040  0.05  0.01   0.01;
  16     1       0.01  0.01   0.0040  0.05  0.01   0.01;
  26     1       0.01  0.01   0.0040  0.05  0.01   0.01;
];

%% IBR Data
% Bus   Type   Kiq   TGqv    Kip     TGpv    Qmax    Qmin    Pmax   Pmin     Tr      Rq      Ki      Kp      Tfrq    Rp
dyn.control = [
   5    1      5     0.01    5       0.01    1.00    -1.00   1.00   0        0.02    0.00    20      4       0.01    0.05;
  16    1      5     0.01    5       0.01    3.00    -2.00   1.00   0        0.02    0.00    20      4       0.01    0.05;
  26    1      5     0.01    5       0.01    1.00    -1.00   1.00   0        0.02    0.00    20      4       0.01    0.05;
];

%% PMU Data
for i=1:1:39
    dyn.pmu(i,1) = i;
    dyn.pmu(i,2) = 0.1;
end
end
